Version 4
SHEET 1 880 680
SYMBOL symb_capteur 96 160 R0
SYMATTR InstName X1
